*SPEF "1481-1998"
*DESIGN "fibo"
*DATE "Wed Oct 29 01:34:15 2025"
*VENDOR "Synopsys, Inc."
*PROGRAM "icc2 /home/synopsys/icc2/U-2022.12-SP6/linux64/nwtn/bin/icc2_exec"
*VERSION "U-2022.12-SP6 Aug 25, 2023"
*DESIGN_FLOW "ICC2 SPEF DR"
*DIVIDER /
*DELIMITER :
*BUS_DELIMITER [ ]
*T_UNIT 1 NS
*C_UNIT 1 PF
*R_UNIT 1 KOHM
*L_UNIT 1 HENRY

// XY_UNIT 1 UM
// PARASITIC_TECH p1 at 125.000 degree

*NAME_MAP
*1 clk
*2 reset
*3 fib_out[3]
*4 fib_out[2]
*5 fib_out[1]
*6 fib_out[0]
*7 VDD
*8 VSS
*9 a_reg[3]
*10 fib_out_reg[3]
*11 a_reg[1]
*12 a_reg[2]
*13 fib_out_reg[0]
*14 a_reg[0]
*15 fib_out_reg[1]
*16 fib_out_reg[2]
*17 ctmTdsLR_1_609
*18 U19
*19 ZBUF_28_inst_18
*20 ctosc_drc_inst_541
*21 ctmTdsLR_2_16
*22 ctmTdsLR_1_9
*23 ctmTdsLR_1_606
*24 ctmTdsLR_3_17
*25 ctmTdsLR_2_10
*26 U29
*27 U31
*28 ctmTdsLR_1_6
*29 ctmTdsLR_2_607
*30 ctmTdsLR_3_608
*31 U36
*32 ctmTdsLR_1_7
*33 HFSBUF_869_4
*34 HFSINV_984_5
*35 n5
*36 n13
*37 n15
*38 ZBUF_28_0
*39 n17
*40 ctosc_drc_0
*41 n19
*42 tmp_net8
*43 tmp_net9
*44 n22
*45 n25
*46 n27
*47 tmp_net0
*48 a[3]
*49 a[2]
*50 a[1]
*51 a[0]
*52 add_out[3]
*53 add_out[2]
*54 tmp_net1
*55 add_out[0]
*56 HFSNET_4
*57 HFSNET_5
*58 tmp_net4
*59 tmp_net5

*PORTS

*1 I *C 0.363 20.580
*2 I *C 21.420 0.363
*3 O *C 49.198 8.990
*4 O *C 37.100 45.838
*5 O *C 16.940 45.838
*6 O *C 14.140 0.363
*7 I *C 24.780 23.100
*8 I *C 24.780 23.100

*D_NET *1 0.002654891 //LENGTH 17.847 LUMPCC 0 DR

*CONN
*P *1 I *L 0 *C 0.140 20.580
*I *20:I I *L 0.006 *C 8.828 28.700
*N *1:2 *C 5.777 28.700
*N *1:3 *C 5.740 28.675
*N *1:4 *C 5.740 21.215
*N *1:5 *C 5.715 21.190
*N *1:6 *C 0.140 21.190

*CAP
0 *1 5.506656e-05
1 *20:I 0.0002462
2 *1:2 0.0002462
3 *1:3 0.0006586641
4 *1:4 0.0006586641
5 *1:5 0.0003675148
6 *1:6 0.0004225814

*RES
0 *1 *1:6 0.0001742857
1 *1:2 *20:I 0.00106087
2 *1:3 *1:2 0.006
3 *1:4 *1:3 0.002131429
4 *1:5 *1:4 0.006
5 *1:6 *1:5 0.001592857

*END

*D_NET *2 0.0008649062 //LENGTH 7.008 LUMPCC 0 DR

*CONN
*P *2 I *L 0 *C 21.420 0.585
*I *34:I I *L 0.01067 *C 22.248 6.143
*N *2:2 *C 22.240 5.740
*N *2:3 *C 21.457 5.740
*N *2:4 *C 21.420 5.715

*CAP
0 *2 0.0003218094
1 *34:I 4.450174e-05
2 *2:2 0.0001106437
3 *2:3 6.614192e-05
4 *2:4 0.0003218094

*RES
0 *2 *2:4 0.001465714
1 *2:3 *2:2 0.0002721739
2 *2:4 *2:3 0.006
3 *2:2 *34:I 0.0001262745

*END

*D_NET *3 0.003064437 //LENGTH 24.295 LUMPCC 0 DR

*CONN
*I *10:Q O *L 0 *C 37.100 16.380
*I *21:B1 I *L 0.00439 *C 37.100 11.900
*I *21:A1 I *L 0.00332 *C 34.195 11.340
*P *3 O *L 0 *C 48.975 8.990
*N *3:4 *C 37.125 8.990
*N *3:5 *C 37.100 9.015
*N *3:6 *C 34.300 11.340
*N *3:7 *C 34.300 11.315
*N *3:8 *C 34.300 10.845
*N *3:9 *C 34.325 10.820
*N *3:10 *C 37.075 10.820
*N *3:11 *C 37.100 10.820
*N *3:12 *C 37.100 11.900
*N *3:13 *C 37.100 16.355

*CAP
0 *10:Q 1e-06
1 *21:B1 1e-06
2 *21:A1 5.05451e-05
3 *3 0.0007394207
4 *3:4 0.0007394207
5 *3:5 0.0001266441
6 *3:6 5.05451e-05
7 *3:7 5.745401e-05
8 *3:8 5.745401e-05
9 *3:9 0.0001808243
10 *3:10 0.0001808243
11 *3:11 0.0001943547
12 *3:12 0.0003763305
13 *3:13 0.0003086199

*RES
0 *10:Q *3:13 0.006
1 *3:13 *3:12 0.001272857
2 *3:12 *21:B1 0.006
3 *3:12 *3:11 0.0003085714
4 *3:5 *3:4 0.006
5 *3:4 *3 0.003385714
6 *3:11 *3:10 0.006
7 *3:11 *3:5 0.0005157142
8 *3:10 *3:9 0.0007857142
9 *3:8 *3:7 0.0001342857
10 *3:9 *3:8 0.006
11 *3:6 *21:A1 5.428571e-05
12 *3:7 *3:6 0.006

*END

*D_NET *4 0.005044574 //LENGTH 32.850 LUMPCC 0 DR

*CONN
*I *16:Q O *L 0 *C 32.495 23.575
*I *29:B1 I *L 0.0041 *C 30.065 28.700
*P *4 O *L 0 *C 37.100 45.615
*N *4:3 *C 37.100 34.635
*N *4:4 *C 37.075 34.610
*N *4:5 *C 33.205 34.610
*N *4:6 *C 33.180 34.585
*N *4:7 *C 30.065 28.725
*N *4:8 *C 30.380 28.738
*N *4:9 *C 30.380 29.095
*N *4:10 *C 30.405 29.120
*N *4:11 *C 33.155 29.120
*N *4:12 *C 33.180 29.120
*N *4:13 *C 33.180 24.850
*N *4:14 *C 32.620 24.850
*N *4:15 *C 32.620 23.685
*N *4:16 *C 32.620 23.660

*CAP
0 *16:Q 4.389143e-05
1 *29:B1 1e-06
2 *4 0.0007221426
3 *4:3 0.0007221426
4 *4:4 0.0002939916
5 *4:5 0.0002939916
6 *4:6 0.0004582935
7 *4:7 3.610253e-05
8 *4:8 9.507853e-05
9 *4:9 5.897599e-05
10 *4:10 0.0002857267
11 *4:11 0.0002857267
12 *4:12 0.0008621208
13 *4:13 0.0004531721
14 *4:14 0.0002188352
15 *4:15 0.0001694904
16 *4:16 4.389143e-05

*RES
0 *16:Q *4:16 5.428572e-05
1 *4:6 *4:5 0.006
2 *4:5 *4:4 0.001105714
3 *4:3 *4 0.003137143
4 *4:4 *4:3 0.006
5 *4:16 *4:15 0.006
6 *4:15 *4:14 0.0003328571
7 *4:12 *4:11 0.006
8 *4:12 *4:6 0.001561429
9 *4:11 *4:10 0.0007857142
10 *4:9 *4:8 0.0001021429
11 *4:10 *4:9 0.006
12 *4:7 *29:B1 0.006
13 *4:8 *4:7 7.636363e-05
14 *4:14 *4:13 0.00016
15 *4:13 *4:12 0.00122

*END

*D_NET *5 0.004702419 //LENGTH 31.385 LUMPCC 0 DR

*CONN
*I *15:Q O *L 0 *C 32.495 34.775
*I *26:A1 I *L 0.00686 *C 25.340 40.460
*I *31:A1 I *L 0.00419 *C 15.743 39.870
*P *5 O *L 0 *C 16.940 45.615
*N *5:4 *C 15.938 39.340
*N *5:5 *C 16.928 39.340
*N *5:6 *C 16.940 39.340
*N *5:7 *C 16.940 40.710
*N *5:8 *C 16.965 40.710
*N *5:9 *C 25.315 40.710
*N *5:10 *C 25.340 40.560
*N *5:11 *C 25.340 40.435
*N *5:12 *C 25.340 35.245
*N *5:13 *C 25.365 35.220
*N *5:14 *C 32.595 35.220
*N *5:15 *C 32.620 35.220
*N *5:16 *C 32.620 34.860
*N *5:17 *C 32.620 34.860

*CAP
0 *15:Q 5.171365e-05
1 *26:A1 1e-06
2 *31:A1 5.990946e-05
3 *5 0.0003162223
4 *5:4 0.0001700862
5 *5:5 0.0001101767
6 *5:6 0.0001058933
7 *5:7 0.0004221156
8 *5:8 0.0006851252
9 *5:9 0.0006851252
10 *5:10 3.03017e-05
11 *5:11 0.0003821185
12 *5:12 0.0003518169
13 *5:13 0.0005945073
14 *5:14 0.0005945073
15 *5:15 4.504276e-05
16 *5:16 4.504276e-05
17 *5:17 5.171365e-05

*RES
0 *15:Q *5:17 5.428571e-05
1 *5:11 *26:A1 0.006
2 *5:11 *5:10 3.571429e-05
3 *5:12 *5:11 0.001482857
4 *5:13 *5:12 0.006
5 *5:15 *5:14 0.006
6 *5:14 *5:13 0.002065714
7 *5:17 *5:16 0.006
8 *5:16 *5:15 0.0001028571
9 *5:10 *5:9 0.006
10 *5:9 *5:8 0.002385714
11 *5:7 *5:6 0.0003914286
12 *5:7 *5 0.001401428
13 *5:8 *5:7 0.006
14 *5:5 *5:4 0.0003443478
15 *5:6 *5:5 0.006
16 *5:4 *31:A1 8.519481e-05

*END

*D_NET *6 0.005981431 //LENGTH 43.890 LUMPCC 0 DR

*CONN
*I *13:Q O *L 0 *C 20.860 13.020
*P *6 O *L 0 *C 14.140 0.585
*I *18:A1 I *L 0.00459 *C 8.975 5.180
*I *28:A2 I *L 0.003 *C 20.725 28.140
*N *6:4 *C 20.725 28.115
*N *6:5 *C 20.725 27.315
*N *6:6 *C 20.750 27.290
*N *6:7 *C 21.395 27.290
*N *6:8 *C 21.420 27.265
*N *6:9 *C 21.420 13.260
*N *6:10 *C 9.100 5.180
*N *6:11 *C 9.100 5.230
*N *6:12 *C 9.125 5.330
*N *6:13 *C 14.140 5.305
*N *6:14 *C 14.140 5.330
*N *6:15 *C 19.155 5.330
*N *6:16 *C 19.180 5.355
*N *6:17 *C 19.180 13.235
*N *6:18 *C 19.205 13.260
*N *6:19 *C 20.835 13.260
*N *6:20 *C 20.860 13.260
*N *6:21 *C 20.860 13.165

*CAP
0 *13:Q 1e-06
1 *6 0.0002897676
2 *18:A1 4.326224e-05
3 *28:A2 1e-06
4 *6:4 0.0001130326
5 *6:5 0.0001130326
6 *6:6 8.170517e-05
7 *6:7 8.170517e-05
8 *6:8 0.001108926
9 *6:9 0.001145665
10 *6:10 4.326224e-05
11 *6:11 1e-06
12 *6:12 0.0002729731
13 *6:13 0.0002897676
14 *6:14 0.0005484518
15 *6:15 0.0002754788
16 *6:16 0.0006147473
17 *6:17 0.0006147473
18 *6:18 0.000115327
19 *6:19 0.000115327
20 *6:20 7.39953e-05
21 *6:21 3.725696e-05

*RES
0 *13:Q *6:21 0.006
1 *6:21 *6:20 2.714286e-05
2 *6:8 *6:7 0.006
3 *6:7 *6:6 0.0001842857
4 *6:5 *6:4 0.0002285714
5 *6:6 *6:5 0.006
6 *6:4 *28:A2 0.006
7 *6:20 *6:19 0.006
8 *6:20 *6:9 0.00016
9 *6:19 *6:18 0.0004657143
10 *6:17 *6:16 0.002251429
11 *6:18 *6:17 0.006
12 *6:16 *6:15 0.006
13 *6:15 *6:14 0.001432857
14 *6:13 *6 0.001348571
15 *6:14 *6:13 0.006
16 *6:14 *6:12 0.001432857
17 *6:11 *6:10 0.006
18 *6:12 *6:11 0.006
19 *6:10 *18:A1 5.428571e-05
20 *6:9 *6:8 0.004001429

*END

*D_NET *35 0.001566109 //LENGTH 12.705 LUMPCC 0 DR

*CONN
*I *31:Z O *L 0 *C 12.135 41.160
*I *11:D I *L 0.00209 *C 6.860 34.300
*N *35:2 *C 6.860 34.325
*N *35:3 *C 6.860 41.135
*N *35:4 *C 6.897 41.160

*CAP
0 *31:Z 0.0003324906
1 *11:D 1e-06
2 *35:2 0.0004500636
3 *35:3 0.0004500636
4 *35:4 0.0003324906

*RES
0 *31:Z *35:4 0.001821739
1 *35:2 *11:D 0.006
2 *35:4 *35:3 0.006
3 *35:3 *35:2 0.001945714

*END

*D_NET *36 0.007966936 //LENGTH 54.318 LUMPCC 0 DR

*CONN
*I *28:Z O *L 0 *C 22.415 28.140
*I *22:B1 I *L 0.00309 *C 40.225 39.340
*I *23:B1 I *L 0.00351 *C 42.700 28.550
*I *31:A3 I *L 0.00308 *C 19.828 40.355
*N *36:4 *C 19.218 40.355
*N *36:5 *C 19.180 40.330
*N *36:6 *C 19.180 34.635
*N *36:7 *C 19.205 34.610
*N *36:8 *C 22.515 34.610
*N *36:9 *C 22.540 34.585
*N *36:10 *C 42.700 28.575
*N *36:11 *C 42.700 29.095
*N *36:12 *C 42.675 29.120
*N *36:13 *C 40.460 29.120
*N *36:14 *C 40.983 39.340
*N *36:15 *C 41.020 39.315
*N *36:16 *C 41.020 35.245
*N *36:17 *C 41.045 35.220
*N *36:18 *C 41.530 35.220
*N *36:19 *C 41.580 35.195
*N *36:20 *C 41.580 29.755
*N *36:21 *C 41.530 29.730
*N *36:22 *C 40.460 29.730
*N *36:23 *C 22.565 29.730
*N *36:24 *C 22.540 29.730
*N *36:25 *C 22.540 28.165
*N *36:26 *C 22.540 28.140

*CAP
0 *28:Z 5.49773e-05
1 *22:B1 8.357935e-05
2 *23:B1 1e-06
3 *31:A3 6.601022e-05
4 *36:4 6.601022e-05
5 *36:5 0.0004514699
6 *36:6 0.0004514699
7 *36:7 0.0004099133
8 *36:8 0.0004099133
9 *36:9 0.0003919183
10 *36:10 8.224864e-05
11 *36:11 8.224864e-05
12 *36:12 0.0002014814
13 *36:13 0.0002412517
14 *36:14 8.357935e-05
15 *36:15 0.0003648805
16 *36:16 0.0003648805
17 *36:17 7.890876e-05
18 *36:18 7.890876e-05
19 *36:19 0.0002899007
20 *36:20 0.0002899007
21 *36:21 0.0001109408
22 *36:22 0.001391356
23 *36:23 0.001240645
24 *36:24 0.0005082418
25 *36:25 0.0001163235
26 *36:26 5.49773e-05

*RES
0 *28:Z *36:26 5.428571e-05
1 *36:11 *36:10 0.0001485714
2 *36:12 *36:11 0.006
3 *36:10 *23:B1 0.006
4 *36:21 *36:20 0.0025
5 *36:20 *36:19 0.0004945454
6 *36:18 *36:17 0.0001385714
7 *36:19 *36:18 0.0025
8 *36:16 *36:15 0.001162857
9 *36:17 *36:16 0.006
10 *36:14 *22:B1 0.0002634783
11 *36:15 *36:14 0.006
12 *36:24 *36:23 0.006
13 *36:24 *36:9 0.001387143
14 *36:23 *36:22 0.005112857
15 *36:26 *36:25 0.006
16 *36:25 *36:24 0.0004471429
17 *36:9 *36:8 0.006
18 *36:8 *36:7 0.0009457142
19 *36:6 *36:5 0.001627143
20 *36:7 *36:6 0.006
21 *36:4 *31:A3 0.0002121739
22 *36:5 *36:4 0.006
23 *36:22 *36:21 0.0003057143
24 *36:22 *36:13 0.0001742857
25 *36:13 *36:12 0.0006328571

*END

*D_NET *37 0.002015322 //LENGTH 15.025 LUMPCC 0 DR

*CONN
*I *16:QN O *L 0 *C 34.145 23.660
*I *19:I I *L 0.00191 *C 41.275 18.060
*I *32:A2 I *L 0.00773 *C 38.220 22.540
*N *37:3 *C 38.220 22.515
*N *37:4 *C 38.258 18.060
*N *37:5 *C 38.220 18.085
*N *37:6 *C 38.220 21.800
*N *37:7 *C 38.195 21.800
*N *37:8 *C 34.325 21.800
*N *37:9 *C 34.300 21.825
*N *37:10 *C 34.300 23.635
*N *37:11 *C 34.300 23.660

*CAP
0 *16:QN 4.389143e-05
1 *19:I 0.0002550856
2 *32:A2 1e-06
3 *37:3 5.742695e-05
4 *37:4 0.0002550856
5 *37:5 0.0002433926
6 *37:6 0.0003008195
7 *37:7 0.0002662917
8 *37:8 0.0002662917
9 *37:9 0.0001410729
10 *37:10 0.0001410729
11 *37:11 4.389143e-05

*RES
0 *16:QN *37:11 5.428572e-05
1 *37:3 *32:A2 0.006
2 *37:4 *19:I 0.001049565
3 *37:5 *37:4 0.006
4 *37:6 *37:5 0.001061428
5 *37:6 *37:3 0.0002042857
6 *37:7 *37:6 0.006
7 *37:9 *37:8 0.006
8 *37:8 *37:7 0.001105714
9 *37:11 *37:10 0.006
10 *37:10 *37:9 0.0005171429

*END

*D_NET *38 0.002497338 //LENGTH 15.722 LUMPCC 0 DR

*CONN
*I *19:Z O *L 0 *C 43.105 17.500
*I *25:A1 I *L 0.00332 *C 40.765 23.100
*I *25:B1 I *L 0.00439 *C 44.293 23.100
*N *38:3 *C 46.023 23.100
*N *38:4 *C 46.060 23.075
*N *38:5 *C 46.060 22.435
*N *38:6 *C 46.035 22.410
*N *38:7 *C 40.765 23.075
*N *38:8 *C 40.765 22.435
*N *38:9 *C 40.790 22.410
*N *38:10 *C 43.260 22.410
*N *38:11 *C 43.260 21.190
*N *38:12 *C 43.260 21.165
*N *38:13 *C 43.260 17.525
*N *38:14 *C 43.260 17.500

*CAP
0 *19:Z 4.024999e-05
1 *25:A1 1e-06
2 *25:B1 0.0001736027
3 *38:3 0.0001736027
4 *38:4 6.152142e-05
5 *38:5 6.152142e-05
6 *38:6 0.0001878821
7 *38:7 8.873492e-05
8 *38:8 8.873492e-05
9 *38:9 0.0002098354
10 *38:10 0.0004738207
11 *38:11 7.610324e-05
12 *38:12 0.0004102392
13 *38:13 0.0004102392
14 *38:14 4.024999e-05

*RES
0 *19:Z *38:14 5.428571e-05
1 *38:5 *38:4 0.0001828571
2 *38:6 *38:5 0.006
3 *38:3 *25:B1 0.0006017392
4 *38:4 *38:3 0.006
5 *38:12 *38:11 0.006
6 *38:11 *38:10 0.0003485714
7 *38:14 *38:13 0.006
8 *38:13 *38:12 0.00104
9 *38:8 *38:7 0.0001828571
10 *38:9 *38:8 0.006
11 *38:7 *25:A1 0.006
12 *38:10 *38:9 0.0007057143
13 *38:10 *38:6 0.0007928571

*END

*D_NET *39 0.001963967 //LENGTH 12.900 LUMPCC 0 DR

*CONN
*I *14:QN O *L 0 *C 18.465 16.940
*I *28:A1 I *L 0.00206 *C 18.780 28.700
*N *39:2 *C 18.620 28.700
*N *39:3 *C 18.620 28.675
*N *39:4 *C 18.620 16.965
*N *39:5 *C 18.620 16.940

*CAP
0 *14:QN 3.525457e-05
1 *28:A1 4.389378e-05
2 *39:2 4.389378e-05
3 *39:3 0.0009028352
4 *39:4 0.0009028352
5 *39:5 3.525457e-05

*RES
0 *14:QN *39:5 5.428571e-05
1 *39:2 *28:A1 5.428571e-05
2 *39:3 *39:2 0.006
3 *39:5 *39:4 0.006
4 *39:4 *39:3 0.003345714

*END

*D_NET *40 0.01475498 //LENGTH 89.302 LUMPCC 0 DR

*CONN
*I *20:Z O *L 0 *C 11.340 28.140
*I *12:CP I *L 0.00218 *C 5.335 22.540
*I *14:CP I *L 0.00221 *C 4.620 18.000
*I *11:CP I *L 0.00218 *C 4.495 34.130
*I *15:CP I *L 0.00218 *C 20.573 33.740
*I *10:CP I *L 0.00218 *C 26.055 18.060
*I *9:CP I *L 0.00218 *C 22.415 11.730
*I *16:CP I *L 0.00218 *C 20.735 22.930
*I *13:CP I *L 0.00218 *C 10.095 11.730
*N *40:9 *C 10.220 11.340
*N *40:10 *C 10.220 11.365
*N *40:11 *C 10.220 17.530
*N *40:12 *C 10.780 17.530
*N *40:13 *C 10.780 21.800
*N *40:14 *C 11.340 21.800
*N *40:15 *C 11.340 24.850
*N *40:16 *C 20.860 22.540
*N *40:17 *C 22.540 11.340
*N *40:18 *C 22.540 11.365
*N *40:19 *C 25.900 17.745
*N *40:20 *C 25.900 18.060
*N *40:21 *C 25.900 18.075
*N *40:22 *C 25.875 18.140
*N *40:23 *C 22.565 18.140
*N *40:24 *C 22.540 18.140
*N *40:25 *C 22.540 22.385
*N *40:26 *C 22.515 22.410
*N *40:27 *C 20.885 22.410
*N *40:28 *C 20.860 22.565
*N *40:29 *C 20.860 24.825
*N *40:30 *C 20.835 24.850
*N *40:31 *C 19.218 33.740
*N *40:32 *C 19.180 33.715
*N *40:33 *C 19.180 24.875
*N *40:34 *C 19.180 24.850
*N *40:35 *C 4.620 33.740
*N *40:36 *C 4.620 33.715
*N *40:37 *C 4.620 27.580
*N *40:38 *C 5.180 27.580
*N *40:39 *C 4.620 18.025
*N *40:40 *C 4.620 22.410
*N *40:41 *C 5.180 22.540
*N *40:42 *C 5.180 22.565
*N *40:43 *C 5.180 24.850
*N *40:44 *C 5.205 24.850
*N *40:45 *C 10.780 24.850
*N *40:46 *C 10.780 24.850
*N *40:47 *C 10.780 28.140
*N *40:48 *C 11.340 28.140

*CAP
0 *20:Z 1e-06
1 *12:CP 4.090604e-05
2 *14:CP 1e-06
3 *11:CP 4.263838e-05
4 *15:CP 0.0001389302
5 *10:CP 4.57709e-05
6 *9:CP 5.205957e-05
7 *16:CP 5.614992e-05
8 *13:CP 4.499207e-05
9 *40:9 4.499207e-05
10 *40:10 0.000443451
11 *40:11 0.0004922147
12 *40:12 0.0005440295
13 *40:13 0.000546436
14 *40:14 0.0004120112
15 *40:15 0.0004112521
16 *40:16 5.614992e-05
17 *40:17 5.205957e-05
18 *40:18 0.0004621789
19 *40:19 5.957523e-05
20 *40:20 4.57709e-05
21 *40:21 5.957523e-05
22 *40:22 0.0002094977
23 *40:23 0.0002094977
24 *40:24 0.000790239
25 *40:25 0.0003280601
26 *40:26 0.0002300099
27 *40:27 0.0002300099
28 *40:28 0.0002847359
29 *40:29 0.0002847359
30 *40:30 0.0001254057
31 *40:31 0.0001389302
32 *40:32 0.0008376609
33 *40:33 0.0008376609
34 *40:34 0.0006657181
35 *40:35 4.263838e-05
36 *40:36 0.0006226199
37 *40:37 0.0006641176
38 *40:38 0.0003351414
39 *40:39 0.0004703118
40 *40:40 0.0005152512
41 *40:41 4.090604e-05
42 *40:42 0.0002822981
43 *40:43 0.0005310025
44 *40:44 0.0003857457
45 *40:45 0.0009260582
46 *40:46 0.0003316907
47 *40:47 0.000331589
48 *40:48 5.030929e-05

*RES
0 *20:Z *40:48 0.006
1 *40:24 *40:23 0.006
2 *40:24 *40:18 0.001935714
3 *40:23 *40:22 0.0009457143
4 *40:21 *40:20 0.006
5 *40:21 *40:19 9.428571e-05
6 *40:22 *40:21 0.006
7 *40:20 *10:CP 5.428571e-05
8 *40:17 *9:CP 5.428571e-05
9 *40:18 *40:17 0.006
10 *40:25 *40:24 0.001212857
11 *40:26 *40:25 0.006
12 *40:28 *40:27 0.006
13 *40:28 *40:16 0.006
14 *40:27 *40:26 0.0004657143
15 *40:16 *16:CP 5.428571e-05
16 *40:29 *40:28 0.0006457143
17 *40:30 *40:29 0.006
18 *40:33 *40:32 0.002525714
19 *40:34 *40:33 0.006
20 *40:34 *40:30 0.0004728571
21 *40:31 *15:CP 0.0004713043
22 *40:32 *40:31 0.006
23 *40:48 *40:47 0.00016
24 *40:46 *40:45 0.006
25 *40:46 *40:15 0.00016
26 *40:45 *40:44 0.001592857
27 *40:45 *40:34 0.0024
28 *40:9 *13:CP 5.428572e-05
29 *40:10 *40:9 0.006
30 *40:43 *40:42 0.0006528571
31 *40:43 *40:38 0.0007800001
32 *40:44 *40:43 0.006
33 *40:41 *12:CP 5.428571e-05
34 *40:42 *40:41 0.006
35 *40:42 *40:40 0.00016
36 *40:39 *14:CP 0.006
37 *40:35 *11:CP 5.428572e-05
38 *40:36 *40:35 0.006
39 *40:40 *40:39 0.001252857
40 *40:37 *40:36 0.001752857
41 *40:38 *40:37 0.00016
42 *40:11 *40:10 0.001761429
43 *40:12 *40:11 0.00016
44 *40:13 *40:12 0.00122
45 *40:14 *40:13 0.00016
46 *40:15 *40:14 0.0008714285
47 *40:47 *40:46 0.00094

*END

*D_NET *41 0.001804139 //LENGTH 10.100 LUMPCC 0 DR

*CONN
*I *15:QN O *L 0 *C 33.740 34.860
*I *27:A2 I *L 0.00773 *C 30.380 40.460
*N *41:2 *C 30.380 40.435
*N *41:3 *C 30.380 38.295
*N *41:4 *C 30.405 38.270
*N *41:5 *C 33.715 38.270
*N *41:6 *C 33.740 38.245
*N *41:7 *C 33.740 34.885

*CAP
0 *15:QN 1e-06
1 *27:A2 1e-06
2 *41:2 0.0002306425
3 *41:3 0.0002306425
4 *41:4 0.0003461373
5 *41:5 0.0003461373
6 *41:6 0.0003242898
7 *41:7 0.0003242898

*RES
0 *15:QN *41:7 0.006
1 *41:2 *27:A2 0.006
2 *41:3 *41:2 0.0006114286
3 *41:4 *41:3 0.006
4 *41:6 *41:5 0.006
5 *41:5 *41:4 0.0009457142
6 *41:7 *41:6 0.00096

*END

*D_NET *42 0.002364015 //LENGTH 14.020 LUMPCC 0 DR

*CONN
*I *30:ZN O *L 0 *C 33.180 39.340
*I *29:A1 I *L 0.00403 *C 30.380 29.820
*N *42:2 *C 30.380 29.845
*N *42:3 *C 30.380 32.620
*N *42:4 *C 30.940 32.620
*N *42:5 *C 30.940 37.635
*N *42:6 *C 30.965 37.660
*N *42:7 *C 33.155 37.660
*N *42:8 *C 33.180 37.685
*N *42:9 *C 33.180 39.315

*CAP
0 *30:ZN 1e-06
1 *29:A1 1e-06
2 *42:2 0.0002541766
3 *42:3 0.0003041281
4 *42:4 0.0005131864
5 *42:5 0.000463235
6 *42:6 0.0002014784
7 *42:7 0.0002014784
8 *42:8 0.0002121657
9 *42:9 0.0002121657

*RES
0 *30:ZN *42:9 0.006
1 *42:2 *29:A1 0.006
2 *42:5 *42:4 0.001432857
3 *42:6 *42:5 0.006
4 *42:8 *42:7 0.006
5 *42:7 *42:6 0.0006257143
6 *42:9 *42:8 0.0004657143
7 *42:3 *42:2 0.0007928571
8 *42:4 *42:3 0.00016

*END

*D_NET *43 0.001737922 //LENGTH 9.097 LUMPCC 0 DR

*CONN
*I *29:ZN O *L 0 *C 34.233 29.820
*I *23:A I *L 0.00368 *C 39.700 29.275
*N *43:2 *C 39.340 29.985
*N *43:3 *C 39.700 30.360
*N *43:4 *C 39.373 30.367
*N *43:5 *C 39.340 30.335
*N *43:6 *C 39.315 30.340
*N *43:7 *C 34.885 30.340
*N *43:8 *C 34.860 30.315
*N *43:9 *C 34.860 29.845
*N *43:10 *C 34.823 29.820

*CAP
0 *29:ZN 7.953786e-05
1 *23:A 0.0001061181
2 *43:2 8.956515e-05
3 *43:3 0.0001736951
4 *43:4 6.757699e-05
5 *43:5 8.956515e-05
6 *43:6 0.0004644599
7 *43:7 0.0004644599
8 *43:8 6.170296e-05
9 *43:9 6.170296e-05
10 *43:10 7.953786e-05

*RES
0 *29:ZN *43:10 0.0002052174
1 *43:4 *43:3 0.0001027451
2 *43:5 *43:4 0.006
3 *43:5 *43:2 0.0001
4 *43:6 *43:5 0.006
5 *43:8 *43:7 0.006
6 *43:7 *43:6 0.001265714
7 *43:10 *43:9 0.006
8 *43:9 *43:8 0.0001342857
9 *43:3 *23:A 0.0003773913

*END

*D_NET *44 0.002609032 //LENGTH 17.062 LUMPCC 0 DR

*CONN
*I *26:ZN O *L 0 *C 26.460 40.460
*I *30:I I *L 0.00376 *C 33.740 39.900
*I *22:A I *L 0.00334 *C 38.133 40.513
*N *44:3 *C 38.220 41.568
*N *44:4 *C 38.220 41.425
*N *44:5 *C 38.220 41.295
*N *44:6 *C 38.195 41.320
*N *44:7 *C 33.740 39.925
*N *44:8 *C 33.740 41.295
*N *44:9 *C 33.740 41.320
*N *44:10 *C 26.485 41.320
*N *44:11 *C 26.460 41.295
*N *44:12 *C 26.460 40.460

*CAP
0 *26:ZN 1e-06
1 *30:I 1e-06
2 *22:A 9.764537e-05
3 *44:3 9.764537e-05
4 *44:4 6.700253e-05
5 *44:5 6.700253e-05
6 *44:6 0.0003578567
7 *44:7 0.0001482338
8 *44:8 0.0001482338
9 *44:9 0.0009100033
10 *44:10 0.0005521466
11 *44:11 8.063101e-05
12 *44:12 8.063101e-05

*RES
0 *26:ZN *44:12 0.006
1 *44:5 *44:4 3.714285e-05
2 *44:6 *44:5 0.006
3 *44:3 *22:A 0.0003669565
4 *44:4 *44:3 0.006
5 *44:8 *44:7 0.0003914286
6 *44:9 *44:8 0.006
7 *44:9 *44:6 0.001272857
8 *44:7 *30:I 0.006
9 *44:11 *44:10 0.006
10 *44:10 *44:9 0.002072857
11 *44:12 *44:11 0.0002385714

*END

*D_NET *45 0.004619314 //LENGTH 27.360 LUMPCC 0 DR

*CONN
*I *27:ZN O *L 0 *C 29.820 39.340
*I *22:B2 I *L 0.0035 *C 39.340 40.460
*I *23:B3 I *L 0.00359 *C 41.020 29.260
*N *45:3 *C 41.020 29.260
*N *45:4 *C 41.020 30.925
*N *45:5 *C 40.995 30.950
*N *45:6 *C 38.805 30.950
*N *45:7 *C 38.780 30.975
*N *45:8 *C 38.780 40.710
*N *45:9 *C 39.340 40.610
*N *45:10 *C 39.340 40.710
*N *45:11 *C 39.315 40.710
*N *45:12 *C 29.845 40.710
*N *45:13 *C 29.820 40.685
*N *45:14 *C 29.820 39.365

*CAP
0 *27:ZN 1e-06
1 *22:B2 1e-06
2 *23:B3 1e-06
3 *45:3 0.0001703088
4 *45:4 0.0001703088
5 *45:5 0.0002212089
6 *45:6 0.0002212089
7 *45:7 0.000734733
8 *45:8 0.0007748246
9 *45:9 4.811006e-05
10 *45:10 8.018344e-06
11 *45:11 0.0009935477
12 *45:12 0.0009935477
13 *45:13 0.0001402484
14 *45:14 0.0001402484

*RES
0 *27:ZN *45:14 0.006
1 *45:9 *22:B2 0.006
2 *45:9 *45:8 0.00016
3 *45:7 *45:6 0.006
4 *45:6 *45:5 0.0006257143
5 *45:4 *45:3 0.0004757142
6 *45:5 *45:4 0.006
7 *45:3 *23:B3 0.006
8 *45:10 *45:9 1e-06
9 *45:11 *45:10 0.006
10 *45:13 *45:12 0.006
11 *45:12 *45:11 0.002705714
12 *45:14 *45:13 0.0003771429
13 *45:8 *45:7 0.002781428

*END

*D_NET *46 0.00298246 //LENGTH 19.552 LUMPCC 0 DR

*CONN
*I *32:ZN O *L 0 *C 37.100 23.660
*I *29:A2 I *L 0.00411 *C 31.973 29.325
*I *23:B2 I *L 0.00375 *C 41.900 28.140
*N *46:3 *C 41.900 28.115
*N *46:4 *C 41.580 28.103
*N *46:5 *C 41.580 26.095
*N *46:6 *C 41.555 26.070
*N *46:7 *C 32.583 29.325
*N *46:8 *C 32.620 29.300
*N *46:9 *C 32.620 26.095
*N *46:10 *C 32.645 26.070
*N *46:11 *C 37.100 26.070
*N *46:12 *C 37.100 26.045
*N *46:13 *C 37.100 23.660

*CAP
0 *32:ZN 1e-06
1 *29:A2 9.149093e-05
2 *23:B2 1e-06
3 *46:3 3.635331e-05
4 *46:4 0.0002578545
5 *46:5 0.0002215012
6 *46:6 0.0002647535
7 *46:7 9.149093e-05
8 *46:8 0.0004375585
9 *46:9 0.0004375585
10 *46:10 0.0002502735
11 *46:11 0.0005150271
12 *46:12 0.0001882989
13 *46:13 0.0001882989

*RES
0 *32:ZN *46:13 0.006
1 *46:5 *46:4 0.0005735715
2 *46:6 *46:5 0.006
3 *46:3 *23:B2 0.006
4 *46:12 *46:11 0.006
5 *46:11 *46:10 0.001272857
6 *46:11 *46:6 0.001272857
7 *46:13 *46:12 0.0006814286
8 *46:9 *46:8 0.0009157141
9 *46:10 *46:9 0.006
10 *46:7 *29:A2 0.0002121739
11 *46:8 *46:7 0.006
12 *46:4 *46:3 7.757576e-05

*END

*D_NET *47 0.002100584 //LENGTH 14.970 LUMPCC 0 DR

*CONN
*I *22:ZN O *L 0 *C 34.735 40.090
*I *17:A2 I *L 0.00695 *C 41.705 33.740
*N *47:2 *C 41.580 33.740
*N *47:3 *C 41.580 33.765
*N *47:4 *C 41.580 37.635
*N *47:5 *C 41.555 37.660
*N *47:6 *C 34.885 37.660
*N *47:7 *C 34.860 37.685
*N *47:8 *C 34.860 40.065
*N *47:9 *C 34.860 40.090

*CAP
0 *22:ZN 4.756991e-05
1 *17:A2 4.758287e-05
2 *47:2 4.758287e-05
3 *47:3 0.0003380151
4 *47:4 0.0003380151
5 *47:5 0.0004125732
6 *47:6 0.0004125732
7 *47:7 0.0002045508
8 *47:8 0.0002045508
9 *47:9 4.756991e-05

*RES
0 *22:ZN *47:9 5.428571e-05
1 *47:2 *17:A2 5.42857e-05
2 *47:3 *47:2 0.006
3 *47:4 *47:3 0.001105714
4 *47:5 *47:4 0.006
5 *47:7 *47:6 0.006
6 *47:6 *47:5 0.001905714
7 *47:9 *47:8 0.006
8 *47:8 *47:7 0.0006800001

*END

*D_NET *48 0.002159284 //LENGTH 15.627 LUMPCC 0 DR

*CONN
*I *9:Q O *L 0 *C 33.180 13.020
*I *10:D I *L 0.00209 *C 28.700 17.500
*I *21:B2 I *L 0.00434 *C 36.068 12.305
*I *21:A2 I *L 0.00342 *C 34.965 11.915
*N *48:4 *C 34.950 12.330
*N *48:5 *C 34.965 11.915
*N *48:6 *C 34.860 11.915
*N *48:7 *C 34.860 11.925
*N *48:8 *C 34.860 13.845
*N *48:9 *C 34.835 13.870
*N *48:10 *C 28.700 17.475
*N *48:11 *C 28.700 13.895
*N *48:12 *C 28.725 13.870
*N *48:13 *C 33.180 13.870
*N *48:14 *C 33.180 13.845
*N *48:15 *C 33.180 13.165

*CAP
0 *9:Q 1e-06
1 *10:D 1e-06
2 *21:B2 0.0001122957
3 *21:A2 1e-06
4 *48:4 0.0001122957
5 *48:5 2.155046e-05
6 *48:6 2.155046e-05
7 *48:7 0.0001604709
8 *48:8 0.0001604709
9 *48:9 0.0001060973
10 *48:10 0.0003304672
11 *48:11 0.0003304672
12 *48:12 0.0002642069
13 *48:13 0.0003703042
14 *48:14 8.305376e-05
15 *48:15 8.305376e-05

*RES
0 *9:Q *48:15 0.006
1 *48:8 *48:7 0.0005485715
2 *48:9 *48:8 0.006
3 *48:6 *48:5 1e-06
4 *48:7 *48:6 0.006
5 *48:14 *48:13 0.006
6 *48:13 *48:12 0.001272857
7 *48:13 *48:9 0.0004728571
8 *48:15 *48:14 0.0001942857
9 *48:11 *48:10 0.001022857
10 *48:12 *48:11 0.006
11 *48:10 *10:D 0.006
12 *48:4 *21:B2 0.0003886957
13 *48:5 *48:4 0.0001384333
14 *48:5 *21:A2 1e-06

*END

*D_NET *49 0.005709702 //LENGTH 39.225 LUMPCC 0 DR

*CONN
*I *12:Q O *L 0 *C 16.940 24.220
*I *16:D I *L 0.00209 *C 23.100 23.100
*I *29:B2 I *L 0.00434 *C 29.260 29.130
*I *32:A1 I *L 0.00423 *C 40.203 22.628
*I *25:A2 I *L 0.00342 *C 41.720 23.215
*I *25:B2 I *L 0.00434 *C 42.960 23.580
*N *49:6 *C 42.830 23.555
*N *49:7 *C 42.700 23.045
*N *49:8 *C 42.675 23.020
*N *49:9 *C 41.580 22.540
*N *49:10 *C 41.580 23.047
*N *49:11 *C 41.720 23.215
*N *49:12 *C 41.720 23.660
*N *49:13 *C 41.580 23.660
*N *49:14 *C 41.580 23.635
*N *49:15 *C 41.580 23.045
*N *49:16 *C 41.580 23.020
*N *49:17 *C 29.260 29.105
*N *49:18 *C 29.260 23.045
*N *49:19 *C 29.260 23.020
*N *49:20 *C 23.100 22.705
*N *49:21 *C 23.100 23.035
*N *49:22 *C 23.100 23.020
*N *49:23 *C 16.965 23.020
*N *49:24 *C 16.940 23.045
*N *49:25 *C 16.940 24.195

*CAP
0 *12:Q 1e-06
1 *16:D 1e-06
2 *29:B2 1e-06
3 *32:A1 0.0001353876
4 *25:A2 1e-06
5 *25:B2 1e-06
6 *49:6 0.0001052161
7 *49:7 0.0001052161
8 *49:8 0.0001136531
9 *49:9 0.0001772063
10 *49:10 5.925076e-05
11 *49:11 1.743198e-05
12 *49:12 1e-06
13 *49:13 1e-06
14 *49:14 0.0001002719
15 *49:15 0.0001002719
16 *49:16 0.0009422152
17 *49:17 0.0004151447
18 *49:18 0.0004151447
19 *49:19 0.001233064
20 *49:20 7.973071e-05
21 *49:21 7.973071e-05
22 *49:22 0.0009021806
23 *49:23 0.0004976789
24 *49:24 0.0001119538
25 *49:25 0.0001119538

*RES
0 *12:Q *49:25 0.006
1 *49:7 *49:6 0.0001457143
2 *49:8 *49:7 0.006
3 *49:6 *25:B2 0.006
4 *49:15 *49:14 0.0001685714
5 *49:16 *49:15 0.006
6 *49:16 *49:8 0.0003128571
7 *49:14 *49:13 0.006
8 *49:18 *49:17 0.001731429
9 *49:19 *49:18 0.006
10 *49:19 *49:16 0.00352
11 *49:17 *29:B2 0.006
12 *49:21 *16:D 0.006
13 *49:21 *49:20 9.428572e-05
14 *49:22 *49:21 0.006
15 *49:22 *49:19 0.00176
16 *49:24 *49:23 0.006
17 *49:23 *49:22 0.001752857
18 *49:25 *49:24 0.0003285714
19 *49:9 *32:A1 0.0004791304
20 *49:10 *49:9 0.0001765217
21 *49:13 *49:12 2.545455e-05
22 *49:12 *49:11 0.0001484333
23 *49:11 *49:10 3.386329e-05
24 *49:11 *25:A2 1e-06

*END

*D_NET *50 0.005671104 //LENGTH 35.890 LUMPCC 0 DR

*CONN
*I *11:Q O *L 0 *C 15.260 35.420
*I *15:D I *L 0.00209 *C 23.100 34.300
*I *31:A2 I *L 0.00611 *C 20.650 39.900
*I *27:A1 I *L 0.00423 *C 32.245 39.825
*I *26:A2 I *L 0.00767 *C 24.455 40.270
*N *50:5 *C 22.578 40.270
*N *50:6 *C 22.540 40.245
*N *50:7 *C 32.245 38.780
*N *50:8 *C 32.620 38.780
*N *50:9 *C 32.620 38.233
*N *50:10 *C 32.620 38.245
*N *50:11 *C 32.620 38.855
*N *50:12 *C 32.595 38.880
*N *50:13 *C 20.650 39.900
*N *50:14 *C 20.650 38.905
*N *50:15 *C 20.675 38.880
*N *50:16 *C 22.540 38.880
*N *50:17 *C 22.540 38.880
*N *50:18 *C 23.100 38.880
*N *50:19 *C 23.100 34.325
*N *50:20 *C 23.100 35.220
*N *50:21 *C 23.075 35.220
*N *50:22 *C 15.285 35.220
*N *50:23 *C 15.260 35.195
*N *50:24 *C 15.260 35.295

*CAP
0 *11:Q 1e-06
1 *15:D 1e-06
2 *31:A2 1e-06
3 *27:A1 0.0001349794
4 *26:A2 0.0001514867
5 *50:5 0.0001514867
6 *50:6 0.0001386429
7 *50:7 0.0001880788
8 *50:8 0.0001178356
9 *50:9 6.473622e-05
10 *50:10 0.0001128263
11 *50:11 0.0001128263
12 *50:12 0.0006667504
13 *50:13 0.0001151614
14 *50:14 0.0001151614
15 *50:15 0.0001203734
16 *50:16 0.0007871237
17 *50:17 0.0001868845
18 *50:18 0.0003790152
19 *50:19 0.0001140229
20 *50:20 0.0004447966
21 *50:21 0.0007270024
22 *50:22 0.0007270024
23 *50:23 5.595522e-05
24 *50:24 5.595522e-05

*RES
0 *11:Q *50:24 0.006
1 *50:19 *15:D 0.006
2 *50:11 *50:10 0.0001742857
3 *50:12 *50:11 0.006
4 *50:9 *50:8 0.0001904348
5 *50:10 *50:9 0.006
6 *50:5 *26:A2 0.0006530434
7 *50:6 *50:5 0.006
8 *50:17 *50:16 0.006
9 *50:17 *50:6 0.00039
10 *50:16 *50:15 0.0005328571
11 *50:16 *50:12 0.002872857
12 *50:14 *50:13 0.0002842857
13 *50:15 *50:14 0.006
14 *50:13 *31:A2 0.006
15 *50:20 *50:19 0.0002557143
16 *50:20 *50:18 0.001045714
17 *50:21 *50:20 0.006
18 *50:23 *50:22 0.006
19 *50:22 *50:21 0.002225714
20 *50:24 *50:23 2.857143e-05
21 *50:7 *27:A1 0.0003634782
22 *50:8 *50:7 0.0001304348
23 *50:18 *50:17 0.00016

*END

*D_NET *51 0.003053675 //LENGTH 21.698 LUMPCC 0 DR

*CONN
*I *14:Q O *L 0 *C 16.815 17.025
*I *13:D I *L 0.00209 *C 12.443 11.900
*I *18:A2 I *L 0.00401 *C 10.095 6.860
*N *51:3 *C 10.220 6.860
*N *51:4 *C 10.220 7.035
*N *51:5 *C 10.780 7.160
*N *51:6 *C 10.780 11.900
*N *51:7 *C 11.340 11.900
*N *51:8 *C 11.340 13.235
*N *51:9 *C 11.365 13.260
*N *51:10 *C 12.982 11.900
*N *51:11 *C 13.020 11.925
*N *51:12 *C 13.020 13.235
*N *51:13 *C 13.020 13.260
*N *51:14 *C 16.915 13.260
*N *51:15 *C 16.940 13.285
*N *51:16 *C 16.940 16.915
*N *51:17 *C 16.940 16.940

*CAP
0 *14:Q 4.013387e-05
1 *13:D 7.675039e-05
2 *18:A2 5.224639e-05
3 *51:3 5.224639e-05
4 *51:4 4.549656e-05
5 *51:5 0.0004148862
6 *51:6 0.0004148885
7 *51:7 0.000206611
8 *51:8 0.0001611122
9 *51:9 0.0001038905
10 *51:10 7.675039e-05
11 *51:11 0.0001181571
12 *51:12 0.0001181571
13 *51:13 0.0003302663
14 *51:14 0.0002263758
15 *51:15 0.000287786
16 *51:16 0.000287786
17 *51:17 4.013387e-05

*RES
0 *14:Q *51:17 5.428571e-05
1 *51:15 *51:14 0.006
2 *51:14 *51:13 0.001112857
3 *51:17 *51:16 0.006
4 *51:16 *51:15 0.001037143
5 *51:12 *51:11 0.0003742857
6 *51:13 *51:12 0.006
7 *51:13 *51:9 0.0004728572
8 *51:10 *13:D 0.0001878261
9 *51:11 *51:10 0.006
10 *51:8 *51:7 0.0003814285
11 *51:9 *51:8 0.006
12 *51:3 *18:A2 5.428571e-05
13 *51:4 *51:3 0.006
14 *51:5 *51:4 0.00016
15 *51:6 *51:5 0.001354286
16 *51:7 *51:6 0.00016

*END

*D_NET *52 0.003296927 //LENGTH 18.510 LUMPCC 0 DR

*CONN
*I *24:Z O *L 0 *C 41.145 13.020
*I *9:D I *L 0.00209 *C 24.780 11.900
*N *52:2 *C 24.780 11.925
*N *52:3 *C 24.780 12.625
*N *52:4 *C 24.805 12.650
*N *52:5 *C 40.995 12.650
*N *52:6 *C 41.020 12.650
*N *52:7 *C 41.020 13.020
*N *52:8 *C 41.020 13.020

*CAP
0 *24:Z 4.251434e-05
1 *9:D 1e-06
2 *52:2 8.7321e-05
3 *52:3 8.7321e-05
4 *52:4 0.001490347
5 *52:5 0.001490347
6 *52:6 2.778123e-05
7 *52:7 2.778123e-05
8 *52:8 4.251434e-05

*RES
0 *24:Z *52:8 5.428571e-05
1 *52:2 *9:D 0.006
2 *52:3 *52:2 0.0002
3 *52:4 *52:3 0.006