*SPEF "1481-1998"
*DESIGN "fibo"
*DATE "Wed Oct 29 02:48:59 2025"
*VENDOR "Synopsys, Inc."
*PROGRAM "icc2 /home/synopsys/icc2/U-2022.12-SP6/linux64/nwtn/bin/icc2_exec"
*VERSION "U-2022.12-SP6 Aug 25, 2023"
*DESIGN_FLOW "ICC2 SPEF DR"
*DIVIDER /
*DELIMITER :
*BUS_DELIMITER [ ]
*T_UNIT 1 NS
*C_UNIT 1 PF
*R_UNIT 1 KOHM
*L_UNIT 1 HENRY

// XY_UNIT 1 UM
// PARASITIC_TECH p1 at 125.000 degree

*NAME_MAP
*1 clk
*2 reset
*3 fib_out[31]
*4 fib_out[30]
*5 fib_out[29]
*6 fib_out[28]
*7 fib_out[27]
*8 fib_out[26]
*9 fib_out[25]
*10 fib_out[24]
*11 fib_out[23]
*12 fib_out[22]
*13 fib_out[21]
*14 fib_out[20]
*15 fib_out[19]
*16 fib_out[18]
*17 fib_out[17]
*18 fib_out[16]
*19 fib_out[15]
*20 fib_out[14]
*21 fib_out[13]
*22 fib_out[12]
*23 fib_out[11]
*24 fib_out[10]
*25 fib_out[9]
*26 fib_out[8]
*27 fib_out[7]
*28 fib_out[6]
*29 fib_out[5]
*30 fib_out[4]
*31 fib_out[3]
*32 fib_out[2]
*33 fib_out[1]
*34 fib_out[0]
*35 VDD
*36 VSS
*37 fib_out_reg[0]
*38 a_reg[2]
*39 fib_out_reg[2]
*40 fib_out_reg[3]
*41 fib_out_reg[4]
*42 a_reg[5]
*43 a_reg[7]
*44 fib_out_reg[7]
*45 a_reg[8]
*46 fib_out_reg[8]
*47 fib_out_reg[9]
*48 fib_out_reg[21]
*49 a_reg[3]
*50 a_reg[9]
*51 fib_out_reg[28]
*52 fib_out_reg[26]
*53 a_reg[26]
*54 a_reg[21]
*55 a_reg[20]
*56 a_reg[24]
*57 a_reg[18]
*58 a_reg[6]
*59 a_reg[29]
*60 a_reg[12]
*61 fib_out_reg[12]
*62 a_reg[31]
*63 a_reg[19]
*64 a_reg[28]
*65 a_reg[25]
*66 fib_out_reg[25]
*67 a_reg[27]
*68 a_reg[23]
*69 fib_out_reg[23]
*70 a_reg[13]
*71 a_reg[30]
*72 a_reg[11]
*73 fib_out_reg[11]
*74 fib_out_reg[5]
*75 a_reg[14]
*76 fib_out_reg[14]
*77 a_reg[1]
*78 fib_out_reg[1]
*79 fib_out_reg[18]
*80 a_reg[22]
*81 fib_out_reg[20]
*82 fib_out_reg[16]
*83 fib_out_reg[6]
*84 fib_out_reg[15]
*85 a_reg[15]
*86 fib_out_reg[13]
*87 fib_out_reg[31]
*88 fib_out_reg[29]
*89 fib_out_reg[30]
*90 a_reg[17]
*91 fib_out_reg[17]
*92 a_reg[0]
*93 fib_out_reg[22]
*94 fib_out_reg[10]
*95 fib_out_reg[19]
*96 fib_out_reg[24]
*97 fib_out_reg[27]
*98 a_reg[4]
*99 a_reg[10]
*100 a_reg[16]
*101 add_9/ctmTdsLR_1_3246
*102 add_9/gre_a_INV_74_inst_3558
*103 add_9/ZBUF_142_inst_3480
*104 add_9/ctmTdsLR_1_1190
*105 add_9/ctmTdsLR_2_1191
*106 add_9/ctmTdsLR_3_1192
*107 add_9/ctmTdsLR_1_1193
*108 HFSINV_597_9
*109 HFSINV_518_10
*110 add_9/ctmTdsLR_1_1194
*111 add_9/ctmTdsLR_1_3109
*112 add_9/ctmTdsLR_2_886_roptpi_3444
*113 add_9/ctmTdsLR_1_2867
*114 add_9/U26
*115 add_9/ctmTdsLR_1_3195
*116 add_9/ctmTdsLR_1_3369
*117 add_9/ctmTdsLR_1_2817
*118 add_9/ctmTdsLR_1_2990
*119 add_9/U92
*120 add_9/ZBUF_77_inst_3481
*121 add_9/ctmTdsLR_1_3418
*122 add_9/U142
*123 add_9/U143
*124 add_9/ctmTdsLR_1_2807
*125 add_9/U166
*126 add_9/ctmTdsLR_1_1252
*127 add_9/ctmTdsLR_1_3271
*128 add_9/ctmTdsLR_1_979
*129 add_9/U220
*130 add_9/ctmTdsLR_2_2818
*131 add_9/ctmTdsLR_1_810
*132 add_9/ctmTdsLR_1_811
*133 add_9/ctmTdsLR_1_2917
*134 add_9/ctmTdsLR_1_3273
*135 add_9/ctmTdsLR_1_3385
*136 add_9/ctmTdsLR_1_3021
*137 add_9/ctmTdsLR_1_729
*138 add_9/ctmTdsLR_1_3370
*139 add_9/ctmTdsLR_1_2727
*140 add_9/ropt_mt_inst_3561
*141 add_9/ctmTdsLR_1_780
*142 add_9/ctmTdsLR_1_1210
*143 add_9/ctmTdsLR_1_826
*144 add_9/ctmTdsLR_2_827
*145 add_9/ctmTdsLR_1_1906
*146 add_9/ctmTdsLR_1_2845
*147 add_9/ctmTdsLR_1_1233
*148 add_9/ctmTdsLR_1_3334
*149 add_9/ctmTdsLR_1_3430
*150 add_9/ctmTdsLR_1_2856
*151 add_9/ctmTdsLR_1_2991
*152 add_9/ctmTdsLR_1_3034
*153 add_9/ctmTdsLR_1_867
*154 add_9/ctmTdsLR_2_2992
*155 add_9/U362
*156 add_9/U363
*157 add_9/ctmTdsLR_2_1211
*158 add_9/U367
*159 copt_gre_mt_inst_3560
*160 add_9/U369
*161 add_9/U370
*162 add_9/U371
*163 add_9/ctmTdsLR_1_3424
*164 add_9/U373
*165 add_9/ctmTdsLR_1_1196
*166 add_9/U375
*167 add_9/U376
*168 add_9/U377
*169 add_9/ctmTdsLR_1_2766
*170 add_9/U379
*171 add_9/ctmTdsLR_1_3439
*172 add_9/ctmTdsLR_1_3437
*173 add_9/ctmTdsLR_1_740
*174 add_9/ctmTdsLR_1_2767
*175 add_9/ctmTdsLR_1_1228
*176 add_9/U385
*177 add_9/ctmTdsLR_1_1212
*178 add_9/ropt_mt_inst_3562
*179 add_9/U388
*180 add_9/ZBUF_220_inst_2009
*181 add_9/U390
*182 add_9/U391
*183 add_9/ctmTdsLR_3_2973
*184 add_9/U394
*185 add_9/U395
*186 add_9/U396
*187 add_9/U398
*188 add_9/ctmTdsLR_2_3440
*189 add_9/ctmTdsLR_1_3054
*190 add_9/ctmTdsLR_1_2993
*191 add_9/ctmTdsLR_2_3274
*192 add_9/ctmTdsLR_1_3197
*193 add_9/ctmTdsLR_1_3198
*194 add_9/ctmTdsLR_1_2737
*195 add_9/U406
*196 add_9/ctmTdsLR_1_3157
*197 add_9/ctmTdsLR_2_2793
*198 add_9/ctmTdsLR_1_2885
*199 add_9/ctmTdsLR_2_1988
*200 add_9/ctmTdsLR_1_1907
*201 add_9/U410
*202 add_9/ZBUF_24_inst_3472
*203 add_9/ctmTdsLR_1_847
*204 add_9/ctmTdsLR_1_3308
*205 add_9/ctmTdsLR_2_2994
*206 add_9/ctmTdsLR_1_3376
*207 add_9/U416
*208 add_9/U417
*209 add_9/U418
*210 add_9/U419
*211 add_9/ctmTdsLR_1_3407
*212 add_9/ZBUF_9_inst_1263
*213 add_9/ctmTdsLR_1_2754
*214 add_9/U424
*215 add_9/U425
*216 add_9/U426
*217 add_9/U427
*218 add_9/U428
*219 add_9/ctmTdsLR_2_848
*220 add_9/ctmTdsLR_1_1891
*221 add_9/ctmTdsLR_1_3168
*222 add_9/U432
*223 add_9/ctmTdsLR_1_3425
*224 add_9/U434
*225 add_9/ctmTdsLR_1_3132
*226 add_9/U436
*227 add_9/ctmTdsLR_1_2812
*228 add_9/ctmTdsLR_1_2775
*229 add_9/ctmTdsLR_1_1224
*230 add_9/ctmTdsLR_1_1077
*231 add_9/ctmTdsLR_2_3303
*232 add_9/ctmTdsLR_3_2995
*233 add_9/ctmTdsLR_1_2900
*234 add_9/ctmTdsLR_1_1182
*235 add_9/ctmTdsLR_1_3426
*236 add_9/U447
*237 add_9/ctmTdsLR_2_3133
*238 add_9/ctmTdsLR_1_3102
*239 add_9/ctmTdsLR_4_2730
*240 add_9/U452
*241 add_9/U453
*242 add_9/ctmTdsLR_1_3409
*243 add_9/ctmTdsLR_1_3152
*244 add_9/ctmTdsLR_2_3438
*245 add_9/ctmTdsLR_2_3408
*246 add_9/U457
*247 add_9/ctmTdsLR_1_3055
*248 add_9/ctmTdsLR_1_1216
*249 add_9/ctmTdsLR_1_1217
*250 add_9/U460
*251 add_9/ctmTdsLR_2_1909
*252 add_9/ctmTdsLR_2_3371
*253 add_9/ctmTdsLR_1_3362
*254 add_9/ctmTdsLR_3_3293
*255 add_9/ctmTdsLR_1_1198
*256 add_9/U464
*257 add_9/ctmTdsLR_1_2820
*258 add_9/ZBUF_72_inst_1264
*259 add_9/U466
*260 add_9/ctmTdsLR_2_3022
*261 add_9/ctmTdsLR_2_3247
*262 add_9/ctmTdsLR_1_1201
*263 add_9/U470
*264 add_9/ZBUF_2_inst_935
*265 add_9/U473
*266 add_9/ctmTdsLR_3_3275
*267 add_9/ctmTdsLR_2_1218
*268 add_9/ctmTdsLR_1_817
*269 add_9/ctmTdsLR_4_2974
*270 add_9/ctmTdsLR_2_2813
*271 add_9/ctmTdsLR_1_1203
*272 add_9/ctmTdsLR_1_2893
*273 add_9/ctmTdsLR_1_3234
*274 add_9/U483
*275 add_9/ctmTdsLR_2_3035
*276 add_9/U487
*277 add_9/ctmTdsLR_2_1204
*278 add_9/ctmTdsLR_1_1205
*279 ZBUF_11_inst_3458
*280 add_9/ctmTdsLR_2_3056
*281 add_9/ctmTdsLR_1_2769
*282 add_9/ctmTdsLR_1_1221
*283 add_9/ctmTdsLR_1_1037
*284 add_9/ctmTdsLR_1_3160
*285 add_9/ctmTdsLR_1_3317
*286 add_9/ctmTdsLR_1_954
*287 add_9/ctmTdsLR_1_3036
*288 add_9/ctmTdsLR_2_1053
*289 add_9/ctmTdsLR_1_2961
*290 add_9/U501
*291 add_9/ctmTdsLR_1_3142
*292 add_9/ctmTdsLR_2_730
*293 add_9/ctmTdsLR_3_2794
*294 add_9/ctmTdsLR_1_3134
*295 add_9/ctmTdsLR_1_3431
*296 add_9/ctmTdsLR_1_2707
*297 add_9/ctmTdsLR_2_3410
*298 add_9/U511
*299 add_9/ctmTdsLR_1_3112
*300 add_9/ctmTdsLR_1_3436
*301 add_9/ctmTdsLR_1_3372
*302 add_9/ctmTdsLR_1_1236
*303 add_9/ctmTdsLR_1_3373
*304 add_9/ctmTdsLR_2_3366
*305 add_9/ctmTdsLR_1_3296
*306 add_9/ctmTdsLR_1_3329
*307 add_9/ctmTdsLR_1_697
*308 add_9/ctmTdsLR_3_3144
*309 add_9/ctmTdsLR_1_3068
*310 add_9/ctmTdsLR_2_2831
*311 add_9/ctmTdsLR_2_3419
*312 add_9/U525
*313 add_9/ctmTdsLR_1_2795
*314 add_9/ctmTdsLR_4_1055
*315 add_9/U528
*316 add_9/ctmTdsLR_1_3113
*317 add_9/ctmTdsLR_4_3117
*318 add_9/ctmTdsLR_1_671
*319 add_9/ctmTdsLR_1_3354
*320 add_9/ctmTdsLR_2_2950
*321 add_9/U535
*322 add_9/ctmTdsLR_5_2731
*323 add_9/ctmTdsLR_1_2888
*324 add_9/ctmTdsLR_1_2963
*325 add_9/ctmTdsLR_2_3161
*326 add_9/U540
*327 add_9/ctmTdsLR_2_3069
*328 add_9/ctmTdsLR_1_3105
*329 add_9/ctmTdsLR_2_1931
*330 add_9/ctmTdsLR_2_3249
*331 add_9/ctmTdsLR_2_3071
*332 add_9/ctmTdsLR_1_2951
*333 add_9/ctmTdsLR_1_2902
*334 add_9/ctmTdsLR_1_2796
*335 add_9/ctmTdsLR_1_3441
*336 add_9/ctmTdsLR_1_1881
*337 add_9/ctmTdsLR_1_2832
*338 add_9/U551
*339 add_9/ctmTdsLR_1_1882
*340 add_9/ctmTdsLR_2_1110
*341 add_9/ctmTdsLR_1_3374
*342 add_9/ctmTdsLR_1_3262
*343 add_9/ZBUF_2_inst_1268
*344 add_9/ctmTdsLR_1_1256
*345 add_9/U558
*346 add_9/ctmTdsLR_2_3235
*347 add_9/ctmTdsLR_1_2953
*348 add_9/U561
*349 add_9/ctmTdsLR_1_3375
*350 add_9/ctmTdsLR_2_755
*351 add_9/ctmTdsLR_1_3087
*352 add_9/ctmTdsLR_2_987
*353 add_9/U564
*354 add_9/ctmTdsLR_3_3236
*355 add_9/U567
*356 add_9/ctmTdsLR_1_2975
*357 add_9/ctmTdsLR_1_2690
*358 add_9/ctmTdsLR_2_2857
*359 add_9/ctmTdsLR_3_731
*360 add_9/U571
*361 add_9/U573
*362 add_9/U574
*363 add_9/ctmTdsLR_2_1183
*364 add_9/ctmTdsLR_3_1184
*365 add_9/ctmTdsLR_1_2797
*366 add_9/ctmTdsLR_4_3237
*367 add_9/ctmTdsLR_1_732
*368 add_9/ctmTdsLR_1_3435
*369 add_9/ctmTdsLR_1_1247
*370 add_9/ctmTdsLR_2_3263
*371 add_9/ctmTdsLR_2_3297
*372 add_9/ctmTdsLR_1_821
*373 add_9/ctmTdsLR_2_733
*374 add_9/ctmTdsLR_1_3377
*375 add_9/U587
*376 add_9/U588
*377 add_9/ctmTdsLR_4_3145
*378 add_9/ctmTdsLR_2_2894
*379 add_9/ctmTdsLR_1_3264
*380 add_9/U593
*381 add_9/ctmTdsLR_1_3420
*382 add_9/ctmTdsLR_6_3278
*383 add_9/U596
*384 add_9/ctmTdsLR_2_2821
*385 add_9/ctmTdsLR_2_1935
*386 add_9/U598
*387 add_9/U600
*388 add_9/ctmTdsLR_1_1209
*389 add_9/U602
*390 add_9/ctmTdsLR_1_1241
*391 add_9/ctmTdsLR_1_1248
*392 add_9/ctmTdsLR_1_1249
*393 add_9/ctmTdsLR_1_2747
*394 add_9/ZBUF_32_inst_2013
*395 add_9/U610
*396 add_9/ctmTdsLR_1_2913
*397 add_9/ZBUF_32_inst_2014
*398 add_9/ctmTdsLR_1_1991
*399 add_9/U616
*400 add_9/U617
*401 add_9/ctmTdsLR_3_3250
*402 add_9/ZBUF_17_inst_3460
*403 add_9/ZBUF_17_inst_3461
*404 add_9/ctmTdsLR_1_3337
*405 add_9/U625
*406 add_9/U626
*407 add_9/U628
*408 add_9/ctmTdsLR_1_3397
*409 add_9/ctmTdsLR_5_3238
*410 add_9/ZBUF_9_inst_3463
*411 add_9/ZBUF_2_inst_3464
*412 add_9/ZBUF_177_inst_3475
*413 add_9/U635
*414 add_9/U636
*415 add_9/U637
*416 add_9/ctmTdsLR_7_3279
*417 add_9/ctmTdsLR_2_901
*418 add_9/ctmTdsLR_1_3339
*419 add_9/ctmTdsLR_1_2967
*420 add_9/U646
*421 add_9/U647
*422 add_9/ctmTdsLR_2_3398
*423 add_9/ctmTdsLR_2_3386
*424 add_9/U650
*425 add_9/ctmTdsLR_1_3363
*426 add_9/ctmTdsLR_2_3330
*427 add_9/ZBUF_49_inst_3478
*428 add_9/ZBUF_5_inst_2616
*429 add_9/U656
*430 add_9/ctmTdsLR_1_2779
*431 add_9/ctmTdsLR_1_1901
*432 add_9/ctmTdsLR_2_1865
*433 add_9/ctmTdsLR_3_1866
*434 add_9/ctmTdsLR_1_756
*435 add_9/ctmTdsLR_3_2822
*436 add_9/ctmTdsLR_1_3413
*437 add_9/ctmTdsLR_1_2954
*438 add_9/U665
*439 add_9/U666
*440 add_9/U667
*441 add_9/ctmTdsLR_1_3084
*442 add_9/ctmTdsLR_1_999
*443 add_9/ctmTdsLR_1_1000
*444 add_9/ctmTdsLR_2_2955
*445 add_9/U671
*446 add_9/ZBUF_17_inst_3493
*447 add_9/ctmTdsLR_1_1920
*448 add_9/ctmTdsLR_1_939
*449 add_9/ctmTdsLR_1_2823
*450 add_9/ctmTdsLR_1_3251
*451 add_9/ctmTdsLR_2_1951
*452 add_9/U675
*453 add_9/ctmTdsLR_4_3061
*454 add_9/U677
*455 add_9/U678
*456 add_9/U681
*457 add_9/U682
*458 add_9/U683
*459 add_9/ctmTdsLR_4_3299
*460 add_9/copt_gre_mt_inst_3494
*461 add_9/ctmTdsLR_1_3073
*462 add_9/ctmTdsLR_3_3090
*463 add_9/U691
*464 add_9/U692
*465 add_9/U693
*466 add_9/ZBUF_28_inst_1291
*467 add_9/ctmTdsLR_1_3428
*468 add_9/ctmTdsLR_1_3429
*469 add_9/U697
*470 add_9/ctmTdsLR_1_3442
*471 add_9/U699
*472 add_9/ctmTdsLR_2_3443
*473 add_9/ctmTdsLR_4_3091
*474 add_9/U703
*475 add_9/U705
*476 add_9/U706
*477 add_9/ZBUF_24_inst_1295
*478 add_9/U710
*479 add_9/ctmTdsLR_2_957
*480 add_9/ctmTdsLR_2_3252
*481 add_9/U714
*482 add_9/U715
*483 add_9/ctmTdsLR_2_3338
*484 add_9/ctmTdsLR_1_3421
*485 add_9/gre_BUF_46_inst_3551
*486 add_9/U721
*487 add_9/ctmTdsLR_2_1018
*488 add_9/U723
*489 add_9/copt_gre_mt_inst_3496
*490 add_9/U727
*491 add_9/U728
*492 add_9/ctmTdsLR_3_2956
*493 add_9/U730
*494 add_9/U731
*495 add_9/ctmTdsLR_2_2903
*496 add_9/U733
*497 add_9/copt_gre_mt_inst_3497
*498 add_9/ctmTdsLR_3_3253
*499 add_9/ZBUF_32_inst_1304
*500 add_9/ctmTdsLR_5_3300
*501 add_9/copt_gre_mt_inst_3498
*502 add_9/ctmTdsLR_1_2904
*503 add_9/U741
*504 add_9/ctmTdsLR_1_2881
*505 add_9/ctmTdsLR_1_824
*506 add_9/U743
*507 add_9/U744
*508 add_9/U745
*509 add_9/U746
*510 add_9/ctmTdsLR_6_3301
*511 add_9/ctmTdsLR_1_1978
*512 add_9/ctmTdsLR_1_3392
*513 add_9/U752
*514 add_9/U753
*515 add_9/U756
*516 add_9/U758
*517 add_9/U761
*518 add_9/U762
*519 add_9/U763
*520 add_9/U766
*521 add_9/U767
*522 add_9/U768
*523 add_9/U769
*524 add_9/U770
*525 add_9/U771
*526 add_9/ctmTdsLR_1_3306
*527 add_9/U773
*528 add_9/ctmTdsLR_1_3062
*529 add_9/ctmTdsLR_1_3343
*530 add_9/ctmTdsLR_1_3324
*531 add_9/ctmTdsLR_2_2896
*532 add_9/ctmTdsLR_1_2968
*533 add_9/ctmTdsLR_4_3254
*534 add_9/copt_gre_mt_inst_3503
*535 add_9/ctmTdsLR_1_3389
*536 add_9/ctmTdsLR_2_3163
*537 add_9/copt_gre_mt_inst_3504
*538 add_9/ctmTdsLR_1_3280
*539 add_9/ctmTdsLR_2_3281
*540 add_9/ctmTdsLR_1_3031
*541 add_9/ctmTdsLR_1_1921
*542 add_9/ctmTdsLR_2_1922
*543 HFSBUF_6009_24
*544 add_9/ctmTdsLR_2_2691
*545 add_9/ctmTdsLR_2_1858
*546 add_9/ctmTdsLR_3_1859
*547 add_9/ctmTdsLR_1_3002
*548 add_9/ctmTdsLR_1_2860
*549 add_9/copt_gre_mt_inst_3505
*550 add_9/copt_gre_mt_inst_3506
*551 HFSBUF_3806_34
*552 HFSBUF_4204_35
*553 HFSBUF_4446_36
*554 add_9/copt_gre_mt_inst_3507
*555 add_9/ctmTdsLR_1_1953
*556 HFSINV_11743_42
*557 HFSINV_12754_43
*558 add_9/ctmTdsLR_1_3267
*559 add_9/copt_gre_mt_inst_3509
*560 add_9/ctmTdsLR_2_1870
*561 HFSINV_18364_51
*562 HFSINV_18431_52
*563 add_9/ctmTdsLR_1_2802
*564 add_9/ctmTdsLR_2_1954
*565 add_9/ctmTdsLR_3_1955
*566 add_9/ctmTdsLR_1_1968
*567 HFSBUF_19377_64
*568 HFSBUF_19687_65
*569 HFSBUF_21164_66
*570 add_9/ctmTdsLR_1_3411
*571 HFSBUF_22172_68
*572 add_9/ctmTdsLR_1_3380
*573 add_9/ctmTdsLR_1_3174
*574 HFSINV_23518_70
*575 HFSINV_24360_72
*576 HFSINV_25933_73
*577 add_9/ctmTdsLR_1_3095
*578 add_9/ctmTdsLR_1_3077
*579 add_9/ctmTdsLR_2_1898
*580 add_9/ctmTdsLR_1_3033
*581 HFSINV_31445_78
*582 add_9/ctmTdsLR_6_3181
*583 add_9/ZBUF_26_inst_350
*584 ZBUF_242_inst_2582
*585 add_9/ctmTdsLR_2_3269
*586 add_9/ctmTdsLR_1_2842
*587 add_9/ctmTdsLR_1_2681
*588 add_9/copt_gre_mt_inst_3514
*589 add_9/ctmTdsLR_3_2921
*590 add_9/ctmTdsLR_1_2834
*591 add_9/ctmTdsLR_1_1971
*592 add_9/ctmTdsLR_3_1916
*593 add_9/ctmTdsLR_2_825
*594 copt_gre_mt_inst_3515
*595 add_9/ctmTdsLR_1_747
*596 add_9/ctmTdsLR_2_2843
*597 copt_gre_mt_inst_3516
*598 add_9/ZINV_53_inst_370
*599 ropt_inst_3517
*600 add_9/ZBUF_9_inst_374
*601 add_9/ctmTdsLR_1_2848
*602 add_9/ZINV_38_inst_377
*603 add_9/ctmTdsLR_1_3414
*604 add_9/ZBUF_2_inst_645
*605 add_9/gre_d_BUF_36_inst_3557
*606 add_9/ctmTdsLR_1_3367
*607 add_9/ctmTdsLR_2_3123
*608 add_9/ctmTdsLR_2_3344
*609 add_9/copt_gre_mt_inst_3519
*610 add_9/ctmTdsLR_2_3325
*611 add_9/ctmTdsLR_2_2969
*612 add_9/ctmTdsLR_2_3368
*613 add_9/ctmTdsLR_1_2806
*614 add_9/ctmTdsLR_1_2785
*615 add_9/copt_gre_mt_inst_3520
*616 add_9/ctmTdsLR_3_958
*617 add_9/copt_gre_mt_inst_3521
*618 add_9/ctmTdsLR_1_2905
*619 add_9/ctmTdsLR_2_667
*620 add_9/ctmTdsLR_1_2927
*621 add_9/ctmTdsLR_1_3345
*622 add_9/ctmTdsLR_1_2849
*623 add_9/ctmTdsLR_1_3182
*624 add_9/ctmTdsLR_3_690
*625 add_9/ZBUF_28_inst_2362
*626 add_9/ctmTdsLR_2_1137
*627 add_9/copt_gre_mt_inst_3522
*628 add_9/ctmTdsLR_2_757
*629 add_9/ctmTdsLR_3_710
*630 add_9/ctmTdsLR_2_2884
*631 add_9/ctmTdsLR_2_3140
*632 add_9/ctmTdsLR_2_2850
*633 add_9/ZBUF_57_inst_2365
*634 add_9/ctmTdsLR_1_2716
*635 add_9/ZBUF_190_inst_2590
*636 add_9/ctmTdsLR_2_1181
*637 add_9/ctmTdsLR_2_3415
*638 add_9/ctmTdsLR_1_762
*639 add_9/ctmTdsLR_2_763
*640 add_9/ctmTdsLR_4_959
*641 add_9/ctmTdsLR_1_3141
*642 add_9/ctmTdsLR_3_2851
*643 add_9/ctmTdsLR_1_2898
*644 add_9/ctmTdsLR_2_839
*645 add_9/copt_gre_mt_inst_3527
*646 add_9/ctmTdsLR_1_880
*647 add_9/ZBUF_2_inst_2372
*648 add_9/copt_gre_mt_inst_3528
*649 add_9/ctmTdsLR_1_3347
*650 add_9/ctmTdsLR_4_1168
*651 add_9/ctmTdsLR_2_3042
*652 add_9/ZBUF_28_inst_2376
*653 ropt_inst_3530
*654 add_9/ctmTdsLR_1_842
*655 add_9/ctmTdsLR_4_3165
*656 add_9/ctmTdsLR_1_3348
*657 add_9/ctmTdsLR_2_845
*658 add_9/ctmTdsLR_2_856
*659 add_9/ctmTdsLR_3_3043
*660 add_9/ctmTdsLR_2_881
*661 add_9/ZBUF_2_inst_2379
*662 add_9/ctmTdsLR_1_2717
*663 add_9/ctmTdsLR_2_2718
*664 add_9/ctmTdsLR_3_2970
*665 add_9/ctmTdsLR_1_3148
*666 add_9/ctmTdsLR_1_2916
*667 add_9/ctmTdsLR_2_2862
*668 add_9/copt_gre_mt_inst_3531
*669 add_9/ZBUF_9_inst_2661
*670 add_9/copt_gre_mt_inst_3532
*671 add_9/ctmTdsLR_3_3382
*672 add_9/ctmTdsLR_1_3349
*673 add_9/ctmTdsLR_1_967
*674 add_9/ZBUF_2_inst_2597
*675 add_9/ZBUF_28_inst_2598
*676 add_9/ZBUF_5_inst_2662
*677 add_9/ctmTdsLR_1_922
*678 add_9/ctmTdsLR_1_2928
*679 add_9/ctmTdsLR_2_3350
*680 add_9/ctmTdsLR_4_3383
*681 add_9/ctmTdsLR_4_3185
*682 add_9/ZBUF_32_inst_2663
*683 add_9/ctmTdsLR_1_943
*684 add_9/ctmTdsLR_2_3149
*685 add_9/ctmTdsLR_5_3186
*686 add_9/ctmTdsLR_4_1084
*687 add_9/ctmTdsLR_1_2938
*688 add_9/ctmTdsLR_1_1117
*689 add_9/ctmTdsLR_1_3351
*690 add_9/ctmTdsLR_3_3282
*691 add_9/ctmTdsLR_2_1001
*692 add_9/ctmTdsLR_2_1003
*693 add_9/ctmTdsLR_3_1004
*694 add_9/ctmTdsLR_3_1019
*695 add_9/ctmTdsLR_4_1020
*696 add_9/ctmTdsLR_3_3126
*697 add_9/ctmTdsLR_1_3416
*698 add_9/ctmTdsLR_2_1097
*699 add_9/ctmTdsLR_6_3187
*700 add_9/ctmTdsLR_3_3326
*701 add_9/ctmTdsLR_4_3327
*702 add_9/ctmTdsLR_1_2939
*703 add_9/ctmTdsLR_2_3130
*704 add_9/ctmTdsLR_5_3328
*705 add_9/copt_gre_mt_inst_3534
*706 add_9/ctmTdsLR_1_3423
*707 add_9/ctmTdsLR_5_3384
*708 copt_gre_mt_inst_3535
*709 add_9/ctmTdsLR_2_2940
*710 add_9/ctmTdsLR_3_1146
*711 copt_gre_mt_inst_3536
*712 add_9/ctmTdsLR_4_2702
*713 add_9/ctmTdsLR_3_2941
*714 add_9/copt_gre_mt_inst_3537
*715 add_9/ctmTdsLR_4_3283
*716 add_9/ctmTdsLR_2_1186
*717 add_9/ctmTdsLR_3_1187
*718 add_9/ctmTdsLR_1_3241
*719 add_9/ctmTdsLR_2_3189
*720 add_9/ctmTdsLR_2_3007
*721 add_9/ctmTdsLR_1_2985
*722 add_9/copt_gre_mt_inst_3538
*723 add_9/copt_gre_mt_inst_3539
*724 add_9/ctmTdsLR_2_3242
*725 add_9/ctmTdsLR_5_3010
*726 add_9/ctmTdsLR_2_2944
*727 add_9/ctmTdsLR_7_3257
*728 add_9/copt_gre_mt_inst_3541
*729 add_9/copt_gre_mt_inst_3542
*730 add_9/copt_gre_mt_inst_3544
*731 add_9/ctmTdsLR_1_2987
*732 copt_gre_mt_inst_3545
*733 add_9/copt_gre_mt_inst_3546
*734 add_9/copt_gre_mt_inst_3547
*735 add_9/gre_d_BUF_13_inst_3553
*736 add_9/gre_d_BUF_83_inst_3550
*737 add_9/ctmTdsLR_4_3014
*738 add_9/ctmTdsLR_3_3290
*739 add_9/gre_a_INV_74_53
*740 ropt_53
*741 aps_rename_1_
*742 copt_gre_net_639
*743 ZBUF_242_2
*744 ropt_52
*745 n3
*746 add_9/ropt_net_640
*747 n6
*748 n8
*749 add_9/tmp_net237
*750 add_9/tmp_net238
*751 add_9/tmp_net239
*752 add_9/tmp_net240
*753 add_9/tmp_net241
*754 HFSNET_6
*755 HFSNET_7
*756 add_9/copt_gre_net_585
*757 add_9/ropt_net_641
*758 a[31]
*759 a[30]
*760 a[29]
*761 a[28]
*762 a[27]
*763 a[26]
*764 a[25]
*765 a[24]
*766 a[23]
*767 a[22]
*768 a[21]
*769 a[20]
*770 a[19]
*771 a[18]
*772 add_9/ZBUF_220_27
*773 a[16]
*774 a[15]
*775 a[14]
*776 a[13]
*777 a[12]
*778 a[11]
*779 a[10]
*780 a[9]
*781 a[8]
*782 a[7]
*783 a[6]
*784 a[5]
*785 a[4]
*786 a[3]
*787 a[2]
*788 a[1]
*789 a[0]
*790 add_out[31]
*791 add_out[30]
*792 add_out[29]
*793 add_out[28]
*794 add_out[27]
*795 add_out[26]
*796 add_out[25]
*797 add_out[24]
*798 add_out[23]
*799 add_out[22]
*800 add_out[21]
*801 add_out[20]
*802 add_out[19]
*803 add_out[18]
*804 add_out[17]
*805 add_out[16]
*806 add_out[15]
*807 add_out[14]
*808 add_out[13]
*809 add_out[12]
*810 add_out[11]
*811 add_out[10]
*812 add_out[9]
*813 add_out[8]
*814 add_out[7]
*815 add_out[6]
*816 add_out[5]
*817 add_out[4]
*818 add_out[3]
*819 add_out[2]
*820 add_out[1]
*821 add_out[0]
*822 add_9/HFSNET_2
*823 add_9/n4
*824 add_9/n5
*825 add_9/n6
*826 add_9/n7
*827 add_9/n8
*828 add_9/n9
*829 add_9/n11
*830 add_9/n13
*831 add_9/n14
*832 add_9/n15
*833 add_9/n17
*834 add_9/n18
*835 add_9/n19
*836 add_9/n20
*837 add_9/n21
*838 add_9/n22
*839 add_9/n23
*840 add_9/n24
*841 add_9/n25
*842 add_9/n27
*843 add_9/ZBUF_17_43
*844 add_9/n29
*845 add_9/n30
*846 add_9/n31
*847 add_9/n32
*848 add_9/n34
*849 add_9/n35
*850 add_9/ZBUF_9_8
*851 add_9/copt_gre_net_587
*852 add_9/ZBUF_72_8
*853 add_9/copt_gre_net_588
*854 add_9/copt_gre_net_589
*855 add_9/ZBUF_17_44
*856 add_9/n44
*857 add_9/ZBUF_2_29
*858 add_9/n49
*859 add_9/n51
*860 add_9/n53
*861 add_9/copt_net_555
*862 add_9/n55
*863 add_9/ZBUF_2_9
*864 add_9/n57
*865 add_9/n59
*866 add_9/n60
*867 add_9/n61
*868 add_9/n62
*869 add_9/ZBUF_9_44
*870 add_9/n67
*871 add_9/n68
*872 add_9/n71
*873 add_9/ZBUF_32_29
*874 add_9/ZBUF_2_45
*875 add_9/n74
*876 add_9/n77
*877 add_9/n78
*878 add_9/n79
*879 add_9/n80
*880 add_9/n81
*881 add_9/copt_gre_net_594
*882 add_9/n83
*883 add_9/n84
*884 add_9/n85
*885 add_9/n86
*886 add_9/n89
*887 add_9/ZBUF_32_30
*888 add_9/copt_gre_net_595
*889 add_9/n93
*890 add_9/n94
*891 add_9/n95
*892 add_9/n99
*893 add_9/n100
*894 add_9/n102
*895 add_9/copt_gre_net_596
*896 add_9/n105
*897 add_9/n106
*898 add_9/n107
*899 add_9/copt_gre_net_597
*900 add_9/n109
*901 add_9/ZBUF_12_30
*902 add_9/n114
*903 add_9/copt_gre_net_598
*904 add_9/n116
*905 add_9/ZBUF_2_30
*906 add_9/n118
*907 add_9/n119
*908 add_9/n121
*909 add_9/n122
*910 add_9/copt_gre_net_600
*911 add_9/n124
*912 add_9/n127
*913 add_9/ZBUF_24_47
*914 add_9/n130
*915 add_9/n132
*916 add_9/n133
*917 add_9/n138
*918 add_9/n140
*919 add_9/n141
*920 add_9/n143
*921 add_9/n144
*922 add_9/n145
*923 add_9/n147
*924 add_9/n149
*925 add_9/n150
*926 add_9/n153
*927 add_9/n154
*928 add_9/n156
*929 add_9/n158
*930 add_9/ZBUF_5_44
*931 add_9/n163
*932 add_9/ZBUF_177_47
*933 add_9/n165
*934 add_9/n166
*935 add_9/n168
*936 add_9/n173
*937 add_9/n176
*938 add_9/copt_gre_net_605
*939 add_9/n179
*940 copt_gre_net_606
*941 add_9/ZBUF_17_17
*942 copt_gre_net_607
*943 add_9/n188
*944 add_9/n190
*945 add_9/n191
*946 add_9/copt_gre_net_609
*947 add_9/ZBUF_49_48
*948 add_9/n197
*949 add_9/ZBUF_171_0
*950 add_9/ZBUF_438_0
*951 add_9/n205
*952 add_9/n206
*953 add_9/ZBUF_9_0
*954 add_9/copt_gre_net_610
*955 add_9/n209
*956 add_9/n212
*957 add_9/n213
*958 add_9/n215
*959 add_9/n216
*960 add_9/n217
*961 add_9/n218
*962 add_9/n221
*963 add_9/n222
*964 add_9/n224
*965 add_9/ZBUF_28_19
*966 add_9/copt_gre_net_611
*967 add_9/ZBUF_9_1
*968 add_9/copt_gre_net_612
*969 add_9/n230
*970 add_9/n231
*971 add_9/n234
*972 add_9/n235
*973 add_9/ZBUF_142_48
*974 add_9/n242
*975 add_9/ZBUF_77_48
*976 add_9/n244
*977 add_9/n245
*978 add_9/n246
*979 add_9/n247
*980 add_9/n248
*981 add_9/n249
*982 add_9/n250
*983 add_9/ZBUF_24_21
*984 add_9/n253
*985 add_9/n256
*986 add_9/n257
*987 add_9/n260
*988 add_9/n262
*989 add_9/n263
*990 add_9/n269
*991 add_9/n270
*992 add_9/copt_gre_net_617
*993 add_9/ZBUF_28_5
*994 add_9/n274
*995 add_9/copt_gre_net_618
*996 add_9/n278
*997 add_9/n279
*998 add_9/n280
*999 add_9/n282
*1000 add_9/n283
*1001 add_9/copt_gre_net_620
*1002 add_9/n287
*1003 add_9/copt_gre_net_621
*1004 add_9/n294
*1005 add_9/ZBUF_32_23
*1006 add_9/n297
*1007 add_9/n298
*1008 add_9/ZBUF_531_23
*1009 add_9/n300
*1010 add_9/n301
*1011 add_9/copt_gre_net_623
*1012 add_9/ZBUF_32_24
*1013 add_9/n307
*1014 add_9/n308
*1015 add_9/n309
*1016 add_9/n310
*1017 add_9/n311
*1018 add_9/n314
*1019 copt_gre_net_624
*1020 add_9/popt_net_280
*1021 add_9/n317
*1022 add_9/ZBUF_9_25
*1023 add_9/ZBUF_150_25
*1024 add_9/ZINV_61_25
*1025 add_9/n427
*1026 copt_gre_net_625
*1027 add_9/n430
*1028 add_9/n432
*1029 add_9/n433
*1030 add_9/copt_gre_net_626
*1031 add_9/n435
*1032 add_9/n436
*1033 add_9/n438
*1034 add_9/gre_BUF_46_53
*1035 add_9/n440
*1036 add_9/n441
*1037 add_9/copt_gre_net_627
*1038 add_9/n443
*1039 add_9/n444
*1040 add_9/n445
*1041 add_9/n446
*1042 add_9/copt_gre_net_628
*1043 add_9/ZBUF_220_6
*1044 add_9/n450
*1045 add_9/n451
*1046 add_9/copt_gre_net_630
*1047 add_9/popt_net_247
*1048 add_9/popt_net_248
*1049 add_9/ZBUF_54_6
*1050 add_9/copt_gre_net_631
*1051 add_9/popt_net_251
*1052 add_9/n458
*1053 add_9/n460
*1054 add_9/popt_net_252
*1055 add_9/popt_net_253
*1056 add_9/n463
*1057 add_9/copt_gre_net_633
*1058 copt_gre_net_634
*1059 add_9/n466
*1060 add_9/copt_gre_net_635
*1061 add_9/copt_gre_net_636
*1062 add_9/gre_d_BUF_13_53
*1063 add_9/gre_d_BUF_83_53
*1064 add_9/popt_net_258
*1065 add_9/gre_d_BUF_36_53
*1066 add_9/n475
*1067 add_9/n476
*1068 add_9/popt_net_261
*1069 add_9/n479
*1070 add_9/n480
*1071 add_9/ZBUF_17_52
*1072 add_9/n482
*1073 add_9/n486
*1074 add_9/n489
*1075 add_9/popt_net_264
*1076 add_9/n494
*1077 add_9/n496
*1078 add_9/n498
*1079 add_9/n501
*1080 add_9/n502
*1081 add_9/popt_net_265
*1082 add_9/n504
*1083 add_9/n505
*1084 add_9/n506
*1085 add_9/popt_net_266
*1086 add_9/n508
*1087 add_9/popt_net_268
*1088 add_9/popt_net_271
*1089 add_9/popt_net_272
*1090 add_9/n515
*1091 add_9/n516
*1092 add_9/popt_net_274
*1093 add_9/n520
*1094 add_9/popt_net_275
*1095 add_9/n523
*1096 add_9/n524
*1097 add_9/popt_net_276
*1098 add_9/ZBUF_283_26
*1099 add_9/n528
*1100 add_9/n529
*1101 add_9/ZBUF_17_7
*1102 add_9/n531
*1103 add_9/ZBUF_40_7
*1104 add_9/n533
*1105 add_9/n534
*1106 add_9/n536
*1107 add_9/n537
*1108 add_9/ZBUF_12_7
*1109 add_9/n542
*1110 add_9/n543
*1111 add_9/n544
*1112 add_9/n545
*1113 add_9/n546
*1114 add_9/n547
*1115 add_9/n548
*1116 add_9/n549
*1117 add_9/ZBUF_2_39
*1118 add_9/n553
*1119 add_9/n554
*1120 add_9/popt_net_285
*1121 add_9/n557
*1122 add_9/n559
*1123 add_9/popt_net_287
*1124 add_9/n561
*1125 add_9/n562
*1126 add_9/n563
*1127 add_9/n564
*1128 add_9/n565
*1129 add_9/n566
*1130 add_9/popt_net_288
*1131 add_9/n568
*1132 add_9/n569
*1133 add_9/n571
*1134 add_9/n572
*1135 add_9/n578
*1136 add_9/ZBUF_28_13
*1137 add_9/n581
*1138 add_9/ZBUF_9_6
*1139 add_9/ZBUF_2_15
*1140 add_9/n585
*1141 add_9/n586
*1142 add_9/ZBUF_2_19
*1143 add_9/n590
*1144 add_9/n592
*1145 add_9/n594
*1146 add_9/n595
*1147 add_9/n596
*1148 add_9/n597
*1149 add_9/n598
*1150 add_9/n599
*1151 add_9/n600
*1152 add_9/n601
*1153 add_9/n602
*1154 add_9/ZBUF_32_20
*1155 add_9/copt_net_556
*1156 add_9/ZBUF_28_21
*1157 add_9/ZBUF_32_36
*1158 add_9/ZBUF_57_22
*1159 add_9/ZBUF_2_4
*1160 add_9/ZBUF_2_14
*1161 add_9/ZBUF_2_32
*1162 HFSNET_21
*1163 add_9/ZBUF_28_32
*1164 add_9/ZBUF_190_20
*1165 add_9/ZBUF_2_33
*1166 add_9/ZBUF_2_34
*1167 add_9/copt_net_291
*1168 add_9/ZBUF_28_35
*1169 HFSNET_31
*1170 HFSNET_32
*1171 HFSNET_33
*1172 add_9/ZBUF_32_35
*1173 add_9/ZBUF_2_36
*1174 add_9/copt_net_292
*1175 HFSNET_39
*1176 HFSNET_40
*1177 add_9/ZBUF_79_8
*1178 add_9/ZBUF_9_9
*1179 add_9/ZBUF_2_41
*1180 add_9/ZBUF_28_41
*1181 HFSNET_48
*1182 HFSNET_49
*1183 add_9/ZBUF_5_9
*1184 add_9/ZBUF_32_9
*1185 add_9/copt_net_557
*1186 add_9/copt_net_297
*1187 add_9/copt_net_298
*1188 HFSNET_61
*1189 HFSNET_62
*1190 HFSNET_63
*1191 HFSNET_65
*1192 add_9/copt_net_300
*1193 HFSNET_67
*1194 HFSNET_69
*1195 HFSNET_70
*1196 add_9/copt_net_303
*1197 HFSNET_75
*1198 add_9/copt_net_307
*1199 add_9/ZBUF_26_0
*1200 add_9/ZBUF_5_0
*1201 add_9/copt_net_308
*1202 add_9/copt_net_309
*1203 add_9/ZBUF_35_2
*1204 add_9/ZBUF_12_3
*1205 add_9/copt_net_316
*1206 add_9/ZINV_53_4
*1207 add_9/ZBUF_9_4
*1208 add_9/copt_net_321
*1209 add_9/ZINV_38_4
*1210 add_9/copt_net_326
*1211 add_9/ZBUF_2_5
*1212 add_9/copt_net_327
*1213 add_9/ZINV_45_5
*1214 add_9/copt_net_328
*1215 add_9/popt_net_2
*1216 add_9/copt_net_329
*1217 add_9/copt_net_330
*1218 add_9/popt_net_7
*1219 add_9/copt_net_331
*1220 add_9/popt_net_9
*1221 add_9/popt_net_11
*1222 add_9/copt_net_332
*1223 add_9/copt_net_333
*1224 add_9/popt_net_15
*1225 add_9/popt_net_16
*1226 add_9/copt_net_335
*1227 add_9/copt_net_337
*1228 add_9/copt_net_338
*1229 add_9/copt_net_339
*1230 add_9/copt_net_341
*1231 add_9/copt_net_342
*1232 add_9/popt_net_25
*1233 add_9/popt_net_26
*1234 add_9/popt_net_27
*1235 add_9/popt_net_29
*1236 add_9/popt_net_33
*1237 add_9/popt_net_34
*1238 add_9/popt_net_37
*1239 add_9/popt_net_38
*1240 add_9/copt_net_348
*1241 add_9/popt_net_45
*1242 add_9/copt_net_350
*1243 add_9/popt_net_48
*1244 add_9/copt_net_351
*1245 add_9/copt_net_352
*1246 add_9/copt_net_356
*1247 add_9/copt_net_357
*1248 add_9/copt_net_365
*1249 add_9/copt_net_366
*1250 add_9/popt_net_64
*1251 add_9/popt_net_65
*1252 add_9/popt_net_66
*1253 add_9/copt_net_367
*1254 add_9/popt_net_68
*1255 add_9/popt_net_70
*1256 add_9/popt_net_71
*1257 add_9/popt_net_72
*1258 add_9/popt_net_73
*1259 add_9/copt_net_369
*1260 add_9/popt_net_78
*1261 add_9/copt_net_370
*1262 add_9/copt_net_371
*1263 add_9/copt_net_374
*1264 add_9/popt_net_85
*1265 add_9/popt_net_87
*1266 add_9/popt_net_88
*1267 add_9/copt_net_375
*1268 add_9/copt_net_379
*1269 add_9/copt_net_380
*1270 add_9/copt_net_381
*1271 add_9/copt_net_395
*1272 add_9/popt_net_95
*1273 add_9/copt_net_398
*1274 add_9/popt_net_99
*1275 add_9/popt_net_100
*1276 add_9/copt_net_386
*1277 add_9/copt_net_388
*1278 add_9/ZBUF_2_7
*1279 add_9/popt_net_111
*1280 add_9/popt_net_112
*1281 add_9/copt_net_392
*1282 add_9/popt_net_117
*1283 add_9/popt_net_118
*1284 add_9/popt_net_119
*1285 add_9/copt_net_407
*1286 add_9/copt_net_409
*1287 add_9/copt_net_402
*1288 add_9/copt_net_403
*1289 add_9/copt_net_404
*1290 add_9/copt_net_410
*1291 add_9/popt_net_128
*1292 add_9/copt_net_413
*1293 add_9/popt_net_132
*1294 add_9/popt_net_133
*1295 add_9/popt_net_134
*1296 add_9/copt_net_414
*1297 add_9/popt_net_136
*1298 add_9/popt_net_140
*1299 add_9/popt_net_141
*1300 add_9/popt_net_142
*1301 add_9/copt_net_420
*1302 add_9/popt_net_148
*1303 add_9/copt_net_421
*1304 add_9/popt_net_150
*1305 add_9/popt_net_160
*1306 add_9/copt_net_422
*1307 add_9/popt_net_156
*1308 add_9/copt_net_429
*1309 add_9/popt_net_162
*1310 add_9/copt_net_426
*1311 add_9/popt_net_169
*1312 add_9/popt_net_170
*1313 add_9/popt_net_176
*1314 add_9/copt_net_434
*1315 add_9/popt_net_181
*1316 add_9/popt_net_192
*1317 add_9/popt_net_184
*1318 add_9/popt_net_185
*1319 add_9/copt_net_436
*1320 add_9/popt_net_187
*1321 add_9/popt_net_193
*1322 add_9/popt_net_195
*1323 add_9/copt_net_438
*1324 add_9/copt_net_439
*1325 add_9/popt_net_200
*1326 add_9/popt_net_201
*1327 add_9/popt_net_202
*1328 add_9/popt_net_206
*1329 add_9/popt_net_208
*1330 add_9/popt_net_220
*1331 add_9/popt_net_213
*1332 add_9/popt_net_221
*1333 add_9/popt_net_222
*1334 add_9/popt_net_224
*1335 add_9/copt_net_443
*1336 add_9/copt_net_444
*1337 add_9/copt_net_445
*1338 add_9/popt_net_228
*1339 add_9/copt_net_446
*1340 add_9/popt_net_232
*1341 add_9/popt_net_231
*1342 add_9/popt_net_233
*1343 add_9/popt_net_234
*1344 add_9/popt_net_235
*1345 add_9/copt_net_448
*1346 add_9/copt_net_454
*1347 add_9/copt_net_455
*1348 add_9/copt_net_456
*1349 add_9/copt_net_457
*1350 add_9/copt_net_460